8
Coordinates from ORCA-job geopt
  Cl  0.93952655080357     -0.12969853253423     -0.03843173767249
  C   2.73034550974908     -0.03629263440877      0.08822011715758
  C   3.22608889105686      1.37912110826538      0.25060142678731
  Cl  2.78730974789933      2.08409215149195      1.84483514567705
  H   3.13068941942151     -0.45602001432478     -0.83410044067226
  H   3.02465089210990     -0.65961719747424      0.92888174916248
  H   2.81585921607640      2.03481004500243     -0.51324116811941
  H   4.31415977288332      1.38959507398226      0.19375490767975
